data/results/ieee14busdata.txt
 PTI INTERACTIVE POWER SYSTEM SIMULATOR--PSS(R)E UniversiSUN, JUL 26 2026  11:53
                                                                          RATING   %MVA FOR TRANSFORMERS
                                                                           SET A   % I  FOR NON-TRANSFORMER BRANCHES

 BUS      1 BUS 1       69.000 CKT     MW     MVAR     MVA   % 1.0000PU    0.00  X--- LOSSES ---X X---- AREA -----X X---- ZONE -----X      1
  FROM GENERATION                    234.4   -18.9R  235.2 235 69.000KV               MW     MVAR    1                 1
  TO      2 BUS 2       69.000  1    158.7   -24.1   160.5                           4.97   15.18    1                 1
  TO      5 BUS 5       69.000  1     75.7     5.2    75.9                           3.13   12.91    1                 1

 BUS      2 BUS 2       69.000 CKT     MW     MVAR     MVA   % 0.9868PU   -5.70  X--- LOSSES ---X X---- AREA -----X X---- ZONE -----X      2
  FROM GENERATION                     40.0    50.0H   64.0  64 68.091KV               MW     MVAR    1                 1
  TO LOAD-PQ                          21.7    12.7    25.1
  TO      1 BUS 1       69.000  1   -153.7    34.1   157.5                           4.97   15.18    1                 1
  TO      3 BUS 3       69.000  1     74.4    -1.2    74.4                           2.67   11.25    1                 1
  TO      4 BUS 4       69.000  1     56.1     0.9    56.1                           1.88    5.71    1                 1
  TO      5 BUS 5       69.000  1     41.6     3.5    41.7                           1.03    3.13    1                 1

 BUS      3 BUS 3       69.000 CKT     MW     MVAR     MVA   % 0.9611PU  -14.61  X--- LOSSES ---X X---- AREA -----X X---- ZONE -----X      3
  FROM GENERATION                      0.0    40.0H   40.0  40 66.315KV               MW     MVAR    1                 1
  TO LOAD-PQ                          94.2    19.0    96.1
  TO      2 BUS 2       69.000  1    -71.7     8.3    72.2                           2.67   11.25    1                 1
  TO      4 BUS 4       69.000  1    -22.5    12.7    25.9                           0.50    1.27    1                 1

 BUS      4 BUS 4       69.000 CKT     MW     MVAR     MVA   % 0.9543PU  -11.64  X--- LOSSES ---X X---- AREA -----X X---- ZONE -----X      4
                                                               65.850KV               MW     MVAR    1                 1
  TO LOAD-PQ                          47.8    -3.9    48.0
  TO      2 BUS 2       69.000  1    -54.2     1.6    54.3                           1.88    5.71    1                 1
  TO      3 BUS 3       69.000  1     23.0   -12.6    26.2                           0.50    1.27    1                 1
  TO      5 BUS 5       69.000  1    -60.3    15.8    62.4                           0.57    1.80    1                 1
  TO      7 BUS 7       13.800  1     27.8    -2.7    27.9     0.9780LK              0.00    1.71    1                 1
  TO      9 BUS 9       13.800  1     16.0     1.9    16.1     0.9690LK              0.00    1.48    1                 1

 BUS      5 BUS 5       69.000 CKT     MW     MVAR     MVA   % 0.9563PU   -9.92  X--- LOSSES ---X X---- AREA -----X X---- ZONE -----X      5
                                                               65.982KV               MW     MVAR    1                 1
  TO LOAD-PQ                           7.6     1.6     7.8
  TO      1 BUS 1       69.000  1    -72.6     3.0    72.6                           3.13   12.91    1                 1
  TO      2 BUS 2       69.000  1    -40.5    -3.6    40.7                           1.03    3.13    1                 1
  TO      4 BUS 4       69.000  1     60.9   -14.0    62.5                           0.57    1.80    1                 1
  TO      6 BUS 6       13.800  1     44.6    13.0    46.4     0.9320LK              0.00    5.17    1                 1

 BUS      6 BUS 6       13.800 CKT     MW     MVAR     MVA   % 1.0000PU  -16.20  X--- LOSSES ---X X---- AREA -----X X---- ZONE -----X      6
  FROM GENERATION                      0.0    15.1R   15.1  15 13.800KV               MW     MVAR    1                 1
  TO LOAD-PQ                          11.2     7.5    13.5
  TO      5 BUS 5       69.000  1    -44.6    -7.9    45.3     1.0000UN              0.00    5.17    1                 1
  TO     11 BUS 11      13.800  1      7.6     4.8     9.0                           0.08    0.16    1                 1
  TO     12 BUS 12      13.800  1      7.9     2.7     8.3                           0.08    0.18    1                 1
  TO     13 BUS 13      13.800  1     17.9     7.9    19.6                           0.25    0.50    1                 1

 BUS      7 BUS 7       13.800 CKT     MW     MVAR     MVA   % 0.9834PU  -15.12  X--- LOSSES ---X X---- AREA -----X X---- ZONE -----X      7
                                                               13.571KV               MW     MVAR    1                 1
  TO      4 BUS 4       69.000  1    -27.8     4.4    28.1     1.0000UN              0.00    1.71    1                 1
  TO      8 BUS 8       18.000  1     -0.0    -9.2     9.2     1.0000LK              0.00    0.16    1                 1
  TO      9 BUS 9       13.800  1     27.8     4.8    28.2     1.0000LK              0.00    0.90    1                 1

 BUS      8 BUS 8       18.000 CKT     MW     MVAR     MVA   % 1.0000PU  -15.12  X--- LOSSES ---X X---- AREA -----X X---- ZONE -----X      8
  FROM GENERATION                      0.0     9.4R    9.4   9 18.000KV               MW     MVAR    1                 1
  TO      7 BUS 7       13.800  1      0.0     9.4     9.4     1.0000UN              0.00    0.16    1                 1

 BUS      9 BUS 9       13.800 CKT     MW     MVAR     MVA   % 0.9785PU  -16.94  X--- LOSSES ---X X---- AREA -----X X---- ZONE -----X      9
                                                               13.504KV               MW     MVAR    1                 1
  TO LOAD-PQ                          29.5    16.6    33.8
  TO SHUNT                             0.0   -18.2    18.2
  TO      4 BUS 4       69.000  1    -16.0    -0.4    16.0     1.0000UN              0.00    1.48    1                 1
  TO      7 BUS 7       13.800  1    -27.8    -3.9    28.1     1.0000UN              0.00    0.90    1                 1
  TO     10 BUS 10      13.800  1      5.0     3.0     5.9                           0.01    0.03    1                 1
  TO     14 BUS 14      13.800  1      9.3     2.9     9.7                           0.12    0.26    1                 1

 BUS     10 BUS 10      13.800 CKT     MW     MVAR     MVA   % 0.9743PU  -17.13  X--- LOSSES ---X X---- AREA -----X X---- ZONE -----X     10
                                                               13.446KV               MW     MVAR    1                 1
  TO LOAD-PQ                           9.0     5.8    10.7
  TO      9 BUS 9       13.800  1     -5.0    -3.0     5.8                           0.01    0.03    1                 1
  TO     11 BUS 11      13.800  1     -4.0    -2.8     4.9                           0.02    0.05    1                 1

 BUS     11 BUS 11      13.800 CKT     MW     MVAR     MVA   % 0.9832PU  -16.81  X--- LOSSES ---X X---- AREA -----X X---- ZONE -----X     11
                                                               13.569KV               MW     MVAR    1                 1
  TO LOAD-PQ                           3.5     1.8     3.9
  TO      6 BUS 6       13.800  1     -7.5    -4.7     8.8                           0.08    0.16    1                 1
  TO     10 BUS 10      13.800  1      4.0     2.9     4.9                           0.02    0.05    1                 1

 BUS     12 BUS 12      13.800 CKT     MW     MVAR     MVA   % 0.9836PU  -17.18  X--- LOSSES ---X X---- AREA -----X X---- ZONE -----X     12
                                                               13.574KV               MW     MVAR    1                 1
  TO LOAD-PQ                           6.1     1.6     6.3
  TO      6 BUS 6       13.800  1     -7.8    -2.5     8.2                           0.08    0.18    1                 1
  TO     13 BUS 13      13.800  1      1.7     0.9     1.9                           0.01    0.01    1                 1

 BUS     13 BUS 13      13.800 CKT     MW     MVAR     MVA   % 0.9780PU  -17.26  X--- LOSSES ---X X---- AREA -----X X---- ZONE -----X     13
                                                               13.496KV               MW     MVAR    1                 1
  TO LOAD-PQ                          13.5     5.8    14.7
  TO      6 BUS 6       13.800  1    -17.7    -7.4    19.2                           0.25    0.50    1                 1
  TO     12 BUS 12      13.800  1     -1.7    -0.9     1.9                           0.01    0.01    1                 1
  TO     14 BUS 14      13.800  1      5.8     2.5     6.4                           0.07    0.15    1                 1

 BUS     14 BUS 14      13.800 CKT     MW     MVAR     MVA   % 0.9588PU  -18.24  X--- LOSSES ---X X---- AREA -----X X---- ZONE -----X     14
                                                               13.232KV               MW     MVAR    1                 1
  TO LOAD-PQ                          14.9     5.0    15.7
  TO      9 BUS 9       13.800  1     -9.1    -2.6     9.5                           0.12    0.26    1                 1
  TO     13 BUS 13      13.800  1     -5.8    -2.4     6.3                           0.07    0.15    1                 1
